data_Molecule_crystal
_audit_creation_method         'generated by CrystalMaker X for macOS'
_cell_length_a                  10.000000
_cell_length_b                  10.000000
_cell_length_c                  10.000000
_cell_angle_alpha               90.000000
_cell_angle_beta                90.000000
_cell_angle_gamma               90.000000

_symmetry_space_group_name_H-M     'P 1'

loop_
_symmetry_equiv_pos_as_xyz
'+x,+y,+z'

loop_
_atom_site_label
_atom_site_type_symbol
_atom_site_occupancy
_atom_site_fract_x
_atom_site_fract_y
_atom_site_fract_z
 Li1  Li 1.0  0.5  0.5  0.5

